$RunGauss 
%NProcShared=12     
%mem=10GB
%chk=FGrph-3hex_fb_Scan_20.chk
#p BLYP/LANL2DZ Symmetry=(Loose,Follow) scf=(XQC) GFPrint GFInput 

Gaussian imput generated by Python program 

 0 1
 C    -6.446350    -2.916580     8.872664
 C    -8.508521    -3.709954     7.495672
 C   -10.570628    -4.503324     6.118582
 C    -4.332321    -2.015967     7.648661
 C    -6.375400    -2.864287     6.273156
 C    -8.435846    -3.657008     4.897246
 C   -10.518369    -4.395941     3.517785
 C    -2.218224    -1.115314     6.424962
 C    -4.273111    -1.926184     5.047555
 C    -6.328953    -2.738100     3.671809
 C    -8.397355    -3.512914     2.293497
 C   -10.466400    -4.288656     0.917053
 C    -0.103940    -0.214571     5.201495
 C    -2.140286    -1.060034     3.821751
 C    -4.211742    -1.836121     2.446307
 C    -6.276907    -2.630657     1.067246
 C    -8.331738    -3.442087    -0.312733
 C   -10.414717    -4.181463    -1.683763
 C    -0.051922    -0.107253     2.600750
 C    -2.088360    -0.952837     1.223139
 C    -4.169173    -1.711615    -0.153896
 C    -6.219364    -2.542169    -1.535434
 C    -8.300638    -3.280803    -2.907520
 C     0.000000     0.000000     0.000000
 C    -2.062324    -0.793476    -1.376816
 C    -4.124452    -1.586844    -2.753849
 C    -6.186499    -2.380148    -4.131177
 C    -4.854021    -2.843932     8.907480
 C    -6.916069    -3.637236     7.530151
 C    -8.978197    -4.430603     6.153118
 C   -11.040521    -5.224079     4.776303
 C    -2.739883    -1.943277     7.683823
 C    -4.821157    -2.681911     6.311737
 C    -6.871348    -3.512465     4.930198
 C    -8.952161    -4.271243     3.553164
 C   -10.988599    -5.116826     2.175553
 C    -0.625803    -1.042616     6.460066
 C    -2.708783    -1.781993     5.089035
 C    -4.763614    -2.593423     3.709057
 C    -6.828778    -3.387959     2.329996
 C    -8.900235    -4.164045     0.954551
 C   -10.936581    -5.009508    -0.425193
 C    -0.574121    -0.935424     3.859250
 C    -2.643166    -1.711165     2.482806
 C    -4.711568    -2.485980     1.104494
 C    -6.767409    -3.297896    -0.271252
 C    -8.822296    -4.108765    -1.648659
 C    -0.522152    -0.828139     1.258517
 C    -2.604675    -1.567072    -0.120943
 C    -4.665120    -2.359792    -1.496853
 C    -6.708200    -3.208113    -2.872359
 C    -0.469892    -0.720756    -1.342280
 C    -2.531999    -1.514126    -2.719369
 C    -4.594170    -2.307500    -4.096361
 F    -6.996785    -1.629705     9.044921
 F    -9.104368    -2.441556     7.657182
 F   -11.195968    -3.245267     6.240820
 F    -4.830221    -0.682525     7.799122
 F    -6.948190    -1.532231     6.370177
 F    -9.014262    -2.327116     4.990510
 F   -11.161309    -3.118300     3.571393
 F    -2.693817     0.227631     6.562510
 F    -4.808503    -0.580753     5.112845
 F    -6.884788    -1.401467     3.734089
 F    -8.965168    -2.179957     2.337137
 F   -11.108791    -3.009883     0.943218
 F    -0.519983     1.129558     5.295963
 F    -2.632020     0.306554     3.871855
 F    -4.737973    -0.486876     2.491450
 F    -6.832014    -1.292521     1.093107
 F    -8.908161    -2.108082    -0.319182
 F   -11.036753    -2.916586    -1.726852
 F    -0.451310     1.244840     2.648546
 F    -2.579951     0.414044     1.266146
 F    -4.703748    -0.364496    -0.129494
 F    -6.790018    -1.205706    -1.545224
 F    -8.891655    -2.002435    -2.987689
 F    -0.414155     1.348026    -0.000000
 F    -2.534262     0.557015    -1.422189
 F    -4.618148    -0.244724    -2.813752
 F    -6.731744    -1.082556    -4.218715
 F    -4.308777    -4.141523     8.995018
 F    -6.422373    -4.979355     7.590055
 F    -8.506259    -5.781094     6.198492
 F   -10.626366    -6.572105     4.776303
 F    -2.148865    -3.221644     7.763991
 F    -4.250502    -4.018374     6.321526
 F    -6.336773    -4.859583     4.905797
 F    -8.460570    -5.638124     3.510157
 F   -10.589210    -6.468919     2.127757
 F    -0.003768    -2.307493     6.503155
 F    -2.132360    -3.115998     5.095485
 F    -4.208507    -3.931558     3.683196
 F    -6.302548    -4.737204     2.284852
 F    -8.408501    -5.530633     0.904447
 F   -10.520538    -6.353637    -0.519660
 F     0.068270    -2.214196     3.833085
 F    -2.075353    -3.044123     2.439165
 F    -4.155733    -3.822613     1.042214
 F    -6.232018    -4.643327    -0.336543
 F    -8.346704    -5.451710    -1.786207
 F     0.120788    -2.105779     1.204910
 F    -2.026259    -2.896963    -0.214207
 F    -4.092331    -3.691849    -1.593875
 F    -6.210299    -4.541555    -3.022819
 F     0.155447    -1.978812    -1.464518
 F    -1.936153    -2.782524    -2.880880
 F    -4.043735    -3.594375    -4.268619
 F    -0.017489     0.076551    -2.425564
 F    -2.109400    -0.714971    -3.812645
 F    -4.186643    -1.527459    -5.209612
 F    -6.853878    -3.696621     9.985915
 F    -8.931121    -4.509109     8.588948
 F   -11.023032    -5.300630     7.201867
 F    -4.492500    -2.158865    10.096537
 F   -12.459630    -5.224079     4.776303
 F    -2.362537    -1.237541     8.855163
 F   -12.406873    -5.101924     2.147827
 F    -0.218276    -0.337950     7.622494
 F   -12.354559    -5.007174    -0.481789
 F     1.314039    -0.216906     5.258091
 F   -10.822245    -4.886129    -2.846191
 F     1.366352    -0.122155     2.628476
 F    -8.677984    -3.986538    -4.078861
 F     1.419109    -0.000000     0.000000
 F    -6.548021    -3.065214    -5.320234


