$RunGauss 
%NProcShared=12     
%mem=10GB
%chk=FGrph-3hex_fb_Scan_4-3.chk
#p BLYP/LANL2DZ Symmetry=(Loose,Follow) scf=(XQC) GFPrint GFInput 

Gaussian imput generated by Python program 

 0 1
 C    -0.669787    -6.730939    -6.508747
 C    -0.893032    -8.974566    -5.207057
 C    -1.116295   -11.218134    -3.905269
 C    -0.446563    -4.487439    -5.206716
 C    -0.727829    -6.728217    -3.908394
 C    -0.950900    -8.969972    -2.607724
 C    -1.116286   -11.217830    -1.301732
 C    -0.223311    -2.243853    -3.904985
 C    -0.465402    -4.485446    -2.603456
 C    -0.708169    -6.728197    -1.303649
 C    -0.911906    -8.972603     0.000000
 C    -1.116286   -11.217830     1.301732
 C    -0.000017    -0.000056    -2.603479
 C    -0.280594    -2.233702    -1.300671
 C    -0.484588    -4.481307    -0.000000
 C    -0.708170    -6.728197     1.303649
 C    -0.950901    -8.969972     2.607725
 C    -1.116297   -11.218134     3.905269
 C     0.000000     0.000000     0.000000
 C    -0.280594    -2.233702     1.300670
 C    -0.465403    -4.485445     2.603456
 C    -0.727831    -6.728216     3.908395
 C    -0.893034    -8.974565     5.207057
 C    -0.000018    -0.000055     2.603478
 C    -0.223312    -2.243852     3.904984
 C    -0.446565    -4.487438     5.206716
 C    -0.669789    -6.730938     6.508747
 C    -1.049799    -5.182522    -6.508747
 C    -1.273023    -7.426022    -5.206716
 C    -1.496276    -9.669608    -3.904984
 C    -1.719571   -11.913405    -2.603478
 C    -0.826555    -2.938895    -5.207057
 C    -0.991758    -5.185244    -3.908394
 C    -1.254186    -7.428015    -2.603456
 C    -1.438995    -9.679758    -1.300670
 C    -1.719589   -11.913460     0.000000
 C    -0.603292    -0.695326    -3.905269
 C    -0.768688    -2.943488    -2.607725
 C    -1.011419    -5.185263    -1.303649
 C    -1.235001    -7.432153     0.000000
 C    -1.438995    -9.679758     1.300671
 C    -1.719572   -11.913404     2.603479
 C    -0.603302    -0.695630    -1.301732
 C    -0.807682    -2.940857    -0.000000
 C    -1.011420    -5.185263     1.303649
 C    -1.254187    -7.428014     2.603456
 C    -1.496278    -9.669607     3.904985
 C    -0.603303    -0.695630     1.301732
 C    -0.768689    -2.943488     2.607724
 C    -0.991760    -5.185243     3.908394
 C    -1.273026    -7.426021     5.206716
 C    -0.603293    -0.695326     3.905269
 C    -0.826557    -2.938894     5.207057
 C    -1.049802    -5.182521     6.508747
 F     0.725341    -6.890341    -6.638781
 F     0.496878    -9.183057    -5.328023
 F     0.270723   -11.459032    -3.988019
 F     0.977585    -4.583999    -5.312008
 F     0.714384    -6.898624    -3.961855
 F     0.490704    -9.146501    -2.657633
 F     0.292161   -11.472193    -1.315467
 F     1.203194    -2.316741    -3.996541
 F     0.977968    -4.617197    -2.623922
 F     0.732453    -6.882126    -1.321877
 F     0.527953    -9.139628     0.000001
 F     0.292160   -11.472193     1.315467
 F     1.409302    -0.016835    -2.650762
 F     1.170179    -2.318089    -1.304222
 F     0.959160    -4.603819     0.000000
 F     0.732452    -6.882125     1.321877
 F     0.490703    -9.146501     2.657634
 F     0.270721   -11.459032     3.988020
 F     1.410656     0.000000     0.000000
 F     1.170179    -2.318089     1.304223
 F     0.977967    -4.617196     2.623922
 F     0.714383    -6.898622     3.961856
 F     0.496876    -9.183056     5.328024
 F     1.409301    -0.016834     2.650761
 F     1.203192    -2.316740     3.996542
 F     0.977583    -4.583998     5.312009
 F     0.725338    -6.890341     6.638782
 F    -2.444926    -5.023119    -6.638782
 F    -2.697172    -7.329462    -5.312009
 F    -2.922781    -9.596720    -3.996542
 F    -3.128890   -11.896626    -2.650761
 F    -2.216465    -2.730404    -5.328024
 F    -2.433971    -5.014838    -3.961856
 F    -2.697555    -7.296264    -2.623922
 F    -2.889767    -9.595371    -1.304223
 F    -3.130245   -11.913460     0.000000
 F    -1.990310    -0.454428    -3.988020
 F    -2.210292    -2.766959    -2.657634
 F    -2.452041    -5.031335    -1.321877
 F    -2.678749    -7.309641    -0.000000
 F    -2.889768    -9.595371     1.304223
 F    -3.128891   -11.896625     2.650762
 F    -2.011749    -0.441267    -1.315467
 F    -2.247542    -2.773832    -0.000001
 F    -2.452042    -5.031334     1.321877
 F    -2.697556    -7.296263     2.623922
 F    -2.922782    -9.596719     3.996541
 F    -2.011749    -0.441267     1.315467
 F    -2.210293    -2.766959     2.657633
 F    -2.433973    -5.014836     3.961855
 F    -2.697174    -7.329461     5.312008
 F    -1.990311    -0.454428     3.988019
 F    -2.216467    -2.730403     5.328023
 F    -2.444929    -5.023119     6.638781
 F    -0.003877    -0.069933     5.029304
 F    -0.217268    -2.341866     6.340555
 F    -0.455243    -4.605953     7.661110
 F    -1.264345    -7.307507    -7.661110
 F    -1.502321    -9.571594    -6.340555
 F    -1.715712   -11.843527    -5.029304
 F    -0.455240    -4.605954    -7.661110
 F    -1.317789   -13.274155    -2.631806
 F    -0.217266    -2.341867    -6.340554
 F    -1.304699   -13.270058     0.000000
 F    -0.003875    -0.069934    -5.029304
 F    -1.317790   -13.274154     2.631807
 F    -0.401799     1.360694    -2.631806
 F    -1.715714   -11.843526     5.029304
 F    -0.414889     1.310373    -0.351113
 F    -1.502323    -9.571593     6.340555
 F    -0.401800     1.360695     2.631806
 F    -1.264348    -7.307506     7.661110


